TOUGH2 Analysis                                                                 
ROCKS----1----*----2----*----3----*----4----*----5----*----6----*----7----*----8
GasCp    2    2600.0       1.0   1.0E-13   1.0E-13   1.0E-13       2.0    1000.0          
       0.0       0.0       2.0       0.0       0.0
    1            0.2       0.1       0.9       0.7
    8
RFMIX    2    2600.0      0.97   1.0E-13   1.0E-13   1.0E-13       2.0    1000.0          
       0.0       0.0       2.0       0.0       0.0
    1            0.2       0.1       0.9       0.7
    8

SELEC----1----*----2----*----3----*----4----*----5----*----6----*----7----*----8
    1                                                 0    0    0    0    0     
       0.0       0.0                                                            

MULTI----1----*----2----*----3----*----4----*----5----*----6----*----7----*----8
    3    4    3    6
START----1----*----2----*----3----*----4----*----5----*----6----*----7----*----8
PARAM----1-MOP* 123456789012345678901234----*----5----*----6----*----7----*----8
 8 2 200     100000000000001  03 000   0                                        
       0.0  3.1536E8     100.0       0.0                9.81       4.0       1.0
    1.0E-5       1.0                 1.0       1.0          
                                                                                
SOLVR----1----*----2----*----3----*----4----*----5----*----6----*----7----*----8
3  Z1   O0       0.1    1.0E-6
ELEME----1----*----2----*----3----*----4----*----5----*----6----*----7----*----8
    1          RFMIX8.31668E-5       0.0       1.0   0.01665   0.01665   -0.0625
    2          GasCp2.77223E-5       0.0       1.0   0.01665   0.01665   -0.0125

CONNE----1----*----2----*----3----*----4----*----5----*----6----*----7----*----8
    1    2                   3    0.0375    0.01250.00110889      -1.0

GENER----1----*----2----*----3----*----4----*----5----*----6----*----7----*----8

INCON----1----*----2----*----3----*----4----*----5----*----6----*----7----*----8
    1
              250.e5                 .00                10.1                120.

ENDCY
